/batch
/config,noeldb,1     ! force off writing results to database
*get,_wallstrt,active,,time,wall
! ANSYS input file written by Workbench version 2022 R2
! File used for geometry attach: C:\Users\takla\AppData\Local\Temp\WB_takla_19208_2\wbnew_files\dp0\SYS\DM\SYS.agdb
/title,wbnew--Static Structural (A5)
! ****** Begin Custom Load Command Snippet ******
/COM, ACT Extensions:
/COM,     LSDYNA, 2022.2
/COM,     5f463412-bd3e-484b-87e7-cbc0a665e474, wbex
/COM,/COM,     ANSYSMotion, 2022.2
/COM,     20180725-3f81-49eb-9f31-41364844c769, wbex
/COM,
! ****** End   Custom Load Command Snippet ******
*DIM,_wb_ProjectScratch_dir,string,248
_wb_ProjectScratch_dir(1) = 'C:\Users\takla\AppData\Local\Temp\WB_takla_19208_2\_ProjectScratch\Scr74EA\'
*DIM,_wb_SolverFiles_dir,string,248
_wb_SolverFiles_dir(1) = 'C:\Users\takla\AppData\Local\Temp\WB_takla_19208_2\wbnew_files\dp0\SYS\MECH\'
*DIM,_wb_userfiles_dir,string,248
_wb_userfiles_dir(1) = 'C:\Users\takla\AppData\Local\Temp\WB_takla_19208_2\wbnew_files\user_files\'
/com,--- Data in consistent MKS units. See Solving Units in the help system for more information.
/units,MKS
/nopr
/wb,file,start              !  signify a WB generated input file
/prep7
! Turn off shape checking because checks already performed inside WB mesher.
! See help system for more information.
SHPP,OFF,,NOWARN
/nolist
etcon,set             ! allow ANSYS to choose best KEYOP's for 180x elements, resets any applicable keyopt to MAPDL defaults
/com,*********** Nodes for the whole assembly ***********
nblock,3,,7882
(1i9,3e20.9e3)
      438     0.000000000E+00     9.708402634E+00     0.000000000E+00
      439     0.000000000E+00     3.486202037E-01     0.000000000E+00
      440     0.000000000E+00     9.315037359E+00     0.000000000E+00
      441     0.000000000E+00     8.921672083E+00     0.000000000E+00
      442     0.000000000E+00     8.527342141E+00     0.000000000E+00
      443     0.000000000E+00     8.122307711E+00     0.000000000E+00
      444     0.000000000E+00     7.700680991E+00     0.000000000E+00
      445     0.000000000E+00     7.255741471E+00     0.000000000E+00
      446     0.000000000E+00     6.785964708E+00     0.000000000E+00
      447     0.000000000E+00     6.302203821E+00     0.000000000E+00
      448     0.000000000E+00     5.818442935E+00     0.000000000E+00
      449     0.000000000E+00     5.334682048E+00     0.000000000E+00
      450     0.000000000E+00     4.850921161E+00     0.000000000E+00
      451     0.000000000E+00     4.368687116E+00     0.000000000E+00
      452     0.000000000E+00     3.892824676E+00     0.000000000E+00
      453     0.000000000E+00     3.432897194E+00     0.000000000E+00
      454     0.000000000E+00     2.989016479E+00     0.000000000E+00
      455     0.000000000E+00     2.560488732E+00     0.000000000E+00
      456     0.000000000E+00     2.146466157E+00     0.000000000E+00
      457     0.000000000E+00     1.744924600E+00     0.000000000E+00
! ... 7147 like lines cut
/wb,elem,start            !  set before creation of elements
/com,*********** Elements for Body 1 "Surface Body" ***********
et,1,183
keyo,1,3,1
eblock,19,solid,,2255
(19i9)
        1        1        1        1        0        0        0        0        8        0      184      881      862      870      870     3444     3443      870     3466
        1        1        1        1        0        0        0        0        8        0      185      858      859     2875     2875     3432     3437     2875     3433
        1        1        1        1        0        0        0        0        8        0      186      851      862      881     2416     3416     3444     3498     3417
        1        1        1        1        0        0        0        0        8        0      187      851      861      863      862     3415     3439     3442     3416
        1        1        1        1        0        0        0        0        8        0      188      858      844      860      859     3393     3394     3435     3432
        1        1        1        1        0        0        0        0        8        0      189      844      843      854      860     3390     3391     3424     3394
        1        1        1        1        0        0        0        0        8        0      190      843      842      855      854     3387     3388     3423     3391
        1        1        1        1        0        0        0        0        8        0      191      842      841      845      855     3383     3384     3397     3388
        1        1        1        1        0        0        0        0        8        0      192      841     2665      846      845     3386     3401     3396     3384
        1        1        1        1        0        0        0        0        8        0      193     2665      840      847      846     3382     3379     3399     3401
        1        1        1        1        0        0        0        0        8        0      194     2665      866      867      840     3457     3454     3381     3382
        1        1        1        1        0        0        0        0        8        0      195      841      872      866     2665     3385     3455     3457     3386
        1        1        1        1        0        0        0        0        8        0      196      867      883      853      840     3458     3421     3380     3381
        1        1        1        1        0        0        0        0        8        0      197      840      853     2395      847     3380     3422     3402     3379
        1        1        1        1        0        0        0        0        8        0      198      843      874      873      842     3392     3474     3389     3387
        1        1        1        1        0        0        0        0        8        0      199      842      873      872      841     3389     3472     3385     3383
        1        1        1        1        0        0        0        0        8        0      200      858     2952      875      844     3434     3479     3395     3393
        1        1        1        1        0        0        0        0        8        0      201      844      875      874      843     3395     3476     3392     3390
        1        1        1        1        0        0        0        0        8        0      202      845     2414      884      855     3398     3504     3426     3397
        1        1        1        1        0        0        0        0        8        0      203      847     2535      877      846     3403     3485     3400     3399
! ... 2236 like lines cut
!Material Id = {E5CB1C6B-D84E-458E-A162-E03E7E327722}
/com,*********** Elements for Body 2 "Surface Body" ***********
et,2,183
keyo,2,3,1
eblock,19,solid,,53
(19i9)
        2        2        2        2        0        0        0        0        8        0      131      461      464      494      494      563      570      494      564
        2        2        2        2        0        0        0        0        8        0      132      493      495      491      489      626      622      616      618
        2        2        2        2        0        0        0        0        8        0      133      489      492      494      493      617      623      625      618
        2        2        2        2        0        0        0        0        8        0      134      490      492      489      491      620      617      616      619
        2        2        2        2        0        0        0        0        8        0      135      492      490      497      496      620      621      628      624
        2        2        2        2        0        0        0        0        8        0      136      497      490      468      469      621      577      576      579
        2        2        2        2        0        0        0        0        8        0      137      468      490      491      467      577      619      575      574
        2        2        2        2        0        0        0        0        8        0      138      491      495      463      467      622      568      567      575
        2        2        2        2        0        0        0        0        8        0      139      493      465      463      495      571      566      568      626
        2        2        2        2        0        0        0        0        8        0      140      492      496      516      494      624      629      627      623
        2        2        2        2        0        0        0        0        8        0      141      494      464      465      493      570      569      571      625
        2        2        2        2        0        0        0        0        8        0      142      516      462      461      494      565      562      564      627
        2        2        2        2        0        0        0        0        8        0      143      516      460      439      462      561      519      520      565
        2        2        2        2        0        0        0        0        8        0      144      496      459      460      516      560      559      561      629
        2        2        2        2        0        0        0        0        8        0      145      497      458      459      496      558      557      560      628
        2        2        2        2        0        0        0        0        8        0      146      469      470      498      497      578      581      630      579
        2        2        2        2        0        0        0        0        8        0      147      498      457      458      497      556      555      558      630
        2        2        2        2        0        0        0        0        8        0      148      470      471      499      498      580      583      631      581
        2        2        2        2        0        0        0        0        8        0      149      499      456      457      498      554      553      556      631
        2        2        2        2        0        0        0        0        8        0      150      471      472      500      499      582      585      632      583
! ... 34 like lines cut
!Material Id = {76C7632C-6D6A-4E3C-915A-D6A9958AFF0C}
/wb,elem,end               !  done creating elements
/com,*********** Send User Defined Coordinate System(s) ***********
csys,0
toffst,273.15,  ! Temperature offset from absolute zero
/com,*********** Set Reference Temperature ***********
tref,22.
/wb,mat,start              !  starting to send materials
/com,*********** Send Materials ***********
Temperature = 'TEMP' ! Temperature
MP,DENS,1,7850,	! kg m^-3
MP,ALPX,1,1.2e-05,	! C^-1
MP,C,1,434,	! J kg^-1 C^-1
MP,KXX,1,60.5,	! W m^-1 C^-1
MP,RSVX,1,1.7e-07,	! kg m^3 A^-2 s^-3
MP,EX,1,200000000000,	! Pa
MP,NUXY,1,0.3,
MP,MURX,1,10000,
MP,UVID,1,a2238734-2764-4e80-884b-4cde56c74d47
MP,UMID,1,59002a79-71c2-428e-906b-55d7dbee100e

Temperature = 'TEMP' ! Temperature
MP,DENS,2,7850,	! kg m^-3
MP,ALPX,2,1.2e-05,	! C^-1
MP,C,2,434,	! J kg^-1 C^-1
MP,KXX,2,60.5,	! W m^-1 C^-1
MP,RSVX,2,1.7e-07,	! kg m^3 A^-2 s^-3
MP,EX,2,200000000000,	! Pa
MP,NUXY,2,0.3,
MP,MURX,2,10000,
MP,UVID,2,a2238734-2764-4e80-884b-4cde56c74d47
MP,UMID,2,59002a79-71c2-428e-906b-55d7dbee100e

/wb,mat,end                !  done sending materials
/com,*********** Send Sheet Properties ***********
!************************* Model Summary ********************
!Surface Body,	Structural Steel,	matid,	1
!Surface Body,	Structural Steel,	matid,	2
!************************* End Model Summary ********************
! get the diagonal of the bounding box. Needed later for other things
*get,_xmin,node,,mnloc,x
*get,_ymin,node,,mnloc,y
*get,_zmin,node,,mnloc,z
*get,_xmax,node,,mxloc,x
*get,_ymax,node,,mxloc,y
*get,_zmax,node,,mxloc,z
_ASMDIAG=(_xmax-_xmin)*(_xmax-_xmin)+(_ymax-_ymin)*(_ymax-_ymin)+(_zmax-_zmin)*(_zmax-_zmin)
_ASMDIAG=SQRT(_ASMDIAG)
/wb,contact,start          !  starting to send contact
/com,*********** Create Contact "Frictional - Surface Body To Surface Body" ***********
/com,            Real Constant Set For Above Contact Is 4 & 3 
*set,tid,4
*set,cid,3
r,tid
r,cid
et,tid,169
et,cid,172
eblock,10,,,27
(15i9)
     2439        4        4        4        0      462      461      562
     2440        4        4        4        0      439      462      520
     2441        4        4        4        0      461      464      563
     2442        4        4        4        0      465      463      566
     2443        4        4        4        0      464      465      569
     2444        4        4        4        0      468      469      576
     2445        4        4        4        0      467      468      574
     2446        4        4        4        0      463      467      567
     2447        4        4        4        0      469      470      578
     2448        4        4        4        0      470      471      580
     2449        4        4        4        0      471      472      582
     2450        4        4        4        0      472      473      584
     2451        4        4        4        0      473      474      586
     2452        4        4        4        0      474      475      588
     2453        4        4        4        0      475      476      590
     2454        4        4        4        0      476      477      592
     2455        4        4        4        0      477      478      594
     2456        4        4        4        0      478      479      596
     2457        4        4        4        0      479      480      598
     2458        4        4        4        0      480      481      600
! ... 8 like lines cut
eblock,10,,,27
(15i9)
     2466        3        3        3        0      462      461      562
     2467        3        3        3        0      439      462      520
     2468        3        3        3        0      461      464      563
     2469        3        3        3        0      465      463      566
     2470        3        3        3        0      464      465      569
     2471        3        3        3        0      468      469      576
     2472        3        3        3        0      467      468      574
     2473        3        3        3        0      463      467      567
     2474        3        3        3        0      469      470      578
     2475        3        3        3        0      470      471      580
     2476        3        3        3        0      471      472      582
     2477        3        3        3        0      472      473      584
     2478        3        3        3        0      473      474      586
     2479        3        3        3        0      474      475      588
     2480        3        3        3        0      475      476      590
     2481        3        3        3        0      476      477      592
     2482        3        3        3        0      477      478      594
     2483        3        3        3        0      478      479      596
     2484        3        3        3        0      479      480      598
     2485        3        3        3        0      480      481      600
! ... 8 like lines cut
eblock,10,,,56
(15i9)
     2493        3        4        3        0      786      785     3270
     2494        3        4        3        0      787      786     3272
     2495        3        4        3        0      788      787     3274
     2496        3        4        3        0      789      788     3276
     2497        3        4        3        0      790      789     3278
     2498        3        4        3        0      791      790     3280
     2499        3        4        3        0      792      791     3282
     2500        3        4        3        0      793      792     3284
     2501        3        4        3        0      794      793     3286
     2502        3        4        3        0      795      794     3288
     2503        3        4        3        0      796      795     3290
     2504        3        4        3        0      797      796     3292
     2505        3        4        3        0      798      797     3294
     2506        3        4        3        0      799      798     3296
     2507        3        4        3        0      800      799     3298
     2508        3        4        3        0      801      800     3300
     2509        3        4        3        0      802      801     3302
     2510        3        4        3        0      803      802     3304
     2511        3        4        3        0      804      803     3306
     2512        3        4        3        0      805      804     3308
! ... 37 like lines cut
eblock,10,,,56
(15i9)
     2549        4        3        4        0      786      785     3270
     2550        4        3        4        0      787      786     3272
     2551        4        3        4        0      788      787     3274
     2552        4        3        4        0      789      788     3276
     2553        4        3        4        0      790      789     3278
     2554        4        3        4        0      791      790     3280
     2555        4        3        4        0      792      791     3282
     2556        4        3        4        0      793      792     3284
     2557        4        3        4        0      794      793     3286
     2558        4        3        4        0      795      794     3288
     2559        4        3        4        0      796      795     3290
     2560        4        3        4        0      797      796     3292
     2561        4        3        4        0      798      797     3294
     2562        4        3        4        0      799      798     3296
     2563        4        3        4        0      800      799     3298
     2564        4        3        4        0      801      800     3300
     2565        4        3        4        0      802      801     3302
     2566        4        3        4        0      803      802     3304
     2567        4        3        4        0      804      803     3306
     2568        4        3        4        0      805      804     3308
! ... 37 like lines cut
keyo,cid,8,2               ! auto create asymmetric contact (from Program Controlled setting)
keyo,cid,10,0              ! adjust contact stiffness each NR iteration (from Program Controlled setting)
keyo,cid,12,0              ! standard contact
mp,mu,cid,0.2       ! unitless
keyo,cid,2,0               ! augmented Lagrange (from Program Controlled setting)
keyo,cid,4,0               ! on Gauss point (from Program Controlled setting)
keyo,cid,9,0               ! use real geometry with stepped effects
keyo,cid,7,0               ! No Prediction
rmod,tid,3,1.       ! FKN
rmod,tid,5,0.       ! ICONT
rmod,tid,6,1.       ! PINB
rmod,tid,10,0.      ! CNOF
rmod,tid,12,0.      ! FKT
rmod,tid,36,43      ! WB DSID
rmod,cid,3,1.       ! FKN
rmod,cid,5,0.       ! ICONT
rmod,cid,6,1.       ! PINB
rmod,cid,10,0.      ! CNOF
rmod,cid,12,0.      ! FKT
rmod,cid,36,43      ! WB DSID
nsel,all
esel,all
/wb,contact,end            !  done creating contacts
/golist
/wb,load,start             !  starting to send loads
/com,********* Frictionless Supports Y *********
CMBLOCK,_FRICSUY,NODE,      113
(8i10)
       648       689       690       691       692       693       694       695
       696       697       698       699       700       701       702       703
       704       705       706       707       708       709       710       711
       712       713       714       715       716       717       718       719
       720       721       722       723       724       725       726       727
       728       729       730       731       732       733       734       735
       736       737       738       739       740       741       742       743
       744      3000      3080      3082      3084      3086      3088      3090
      3092      3094      3096      3098      3100      3102      3104      3106
      3108      3110      3112      3114      3116      3118      3120      3122
      3124      3126      3128      3130      3132      3134      3136      3138
      3140      3142      3144      3146      3148      3150      3152      3154
      3156      3158      3160      3162      3164      3166      3168      3170
      3172      3174      3176      3178      3180      3182      3184      3186
      3188
cmsel,s,_FRICSUY
d,all,uy,0
nsel,all
/com,******* Constant Zero Displacement X *******
CMBLOCK,_DISPZEROUX,NODE,      210
(8i10)
       438       439       440       441       442       443       444       445
       446       447       448       449       450       451       452       453
       454       455       456       457       458       459       460       461
       462       463       464       465       466       467       468       469
       470       471       472       473       474       475       476       477
       478       479       480       481       482       483       484       485
       486       487       488       489       490       491       492       493
       494       495       496       497       498       499       500       501
       502       503       504       505       506       507       508       509
       510       511       512       513       514       515       516       517
       518       519       520       521       522       523       524       525
       526       527       528       529       530       531       532       533
       534       535       536       537       538       539       540       541
       542       543       544       545       546       547       548       549
       550       551       552       553       554       555       556       557
       558       559       560       561       562       563       564       565
       566       567       568       569       570       571       572       573
       574       575       576       577       578       579       580       581
       582       583       584       585       586       587       588       589
       590       591       592       593       594       595       596       597
! ... 7 like lines cut
cmsel,s,_DISPZEROUX
d,all,ux,0
nsel,all
/gst,on,on
fini
*get,_numnode,node,0,count
*get,_numelem,elem,0,count
*get, _MAXELEMNUM, elem, 0, NUM, MAX
*get, _MAXNODENUM, node, 0, NUM, MAX
*get, _MAXELEMTYPE, etyp, 0, NUM, MAX
*get, _MAXREALCONST, rcon, 0, NUM, MAX
/go
/wb,load,end               !  done creating loads
/com,--- Number of total nodes = %_numnode%
/com,--- Number of contact elements = 166
/com,--- Number of spring elements = 0
/com,--- Number of bearing elements = 0
/com,--- Number of solid elements = 2308
/com,--- Number of condensed parts = 0
/com,--- Number of total elements = %_numelem%
*get,_wallbsol,active,,time,wall
/com,****************************************************************************
/com,*************************    SOLUTION       ********************************
/com,****************************************************************************
/solu
antype,0                   ! static analysis
nlgeom,on                  ! Turn on Large Deformation Effects
_thickRatio=  0     ! Ratio of thick parts in the model
eqsl,sparse,,,,,1
cntr,print,1               ! print out contact info and also make no initial contact an error
dmpoption,emat,no             ! Don't combine emat file for DANSYS
dmpoption,esav,no             ! Don't combine esav file for DANSYS
nldiag,cont,iter           ! print out contact info each equilibrium iteration
rescontrol,define,last,last,,dele	   ! Program Controlled
/com,****************************************************
/com,******************* SOLVE FOR LS 1 OF 1 ****************
/com,*** Set Displacements ***
CMBLOCK,_CM46UY_YP,NODE,      210
(8i10)
       438       439       440       441       442       443       444       445
       446       447       448       449       450       451       452       453
       454       455       456       457       458       459       460       461
       462       463       464       465       466       467       468       469
       470       471       472       473       474       475       476       477
       478       479       480       481       482       483       484       485
       486       487       488       489       490       491       492       493
       494       495       496       497       498       499       500       501
       502       503       504       505       506       507       508       509
       510       511       512       513       514       515       516       517
       518       519       520       521       522       523       524       525
       526       527       528       529       530       531       532       533
       534       535       536       537       538       539       540       541
       542       543       544       545       546       547       548       549
       550       551       552       553       554       555       556       557
       558       559       560       561       562       563       564       565
       566       567       568       569       570       571       572       573
       574       575       576       577       578       579       580       581
       582       583       584       585       586       587       588       589
       590       591       592       593       594       595       596       597
! ... 7 like lines cut
cmsel,s,_CM46UY_YP
d,all,uy,-1.
nsel,all

/com,*** Component For All Non-Zero UY Displacements ***
cmsel,s,_CM46uy_yp
cm,_DISPNONZEROUY,NODE
nsel,all

/nopr
/gopr
autots,on                  ! Workbench Program Controlled automatic time stepping
nsub,1,10,1                ! due to presence of general nonlinear
time,1.
outres,erase
outres,all,none
outres,nsol,all,
outres,rsol,all
outres,eangl,all
outres,etmp,all
outres,veng,all
outres,strs,all,
outres,epel,all,
outres,eppl,all,
outres,cont,all,
! *********** WB SOLVE COMMAND ***********
! check interactive state
*get,ANSINTER_,active,,int
*if,ANSINTER_,ne,0,then
/eof
*endif
solve
/com *************** Write FE CONNECTORS ********* 
CEWRITE,file,ce,,INTE
/com,****************************************************
/com,*************** FINISHED SOLVE FOR LS 1 *************
*get,_wallasol,active,,time,wall
/nopr
*get,_numnode,node,0,count
*get,_numelem,elem,0,count
*get, _MAXELEMNUM, elem, 0, NUM, MAX
*get, _MAXNODENUM, node, 0, NUM, MAX,,,INTERNAL
*get, _MAXELEMTYPE, etyp, 0, NUM, MAX
*get, _MAXREALCONST, rcon, 0, NUM, MAX
*get,_NSOLTHREADS,active,0,ntfs
*get,_NSOLPROCESSES,active,0,npfs
/gopr
/post1
xmlo,ENCODING,ISO-8859-1
xmlo,parm
/xml,parm,xml
fini
/gopr
*get,_walldone,active,,time,wall
_preptime=(_wallbsol-_wallstrt)*3600
_solvtime=(_wallasol-_wallbsol)*3600
_posttime=(_walldone-_wallasol)*3600
_totaltim=(_walldone-_wallstrt)*3600
*get,_dlbratio,active,0,solu,dlbr
*get,_combtime,active,0,solu,comb
*get,_ssmode,active,0,solu,ssmm
*get,_ndofs,active,0,solu,ndof
*get,_sol_end_time,active,0,set,time
*if,_sol_end_time,eq,1.000000,then
/fclean				!clean distributed files
*endif
/com,--- Total number of nodes = %_numnode%
/com,--- Total number of elements = %_numelem%
/com,--- Element load balance ratio = %_dlbratio%
/com,--- Time to combine distributed files = %_combtime%
/com,--- Sparse memory mode = %_ssmode%
/com,--- Number of DOF = %_ndofs%
/wb,file,end               ! done with WB generated input
